MODEL 1
REMARK VINA RESULT:    -8.833      0.000      0.000
REMARK INTER + INTRA:         -11.611
REMARK INTER:                 -11.415
REMARK INTRA:                  -0.197
REMARK UNBOUND:                -0.197
REMARK SMILES COc1c2ccoc2c(OCC=C(C)C)c2oc(=O)ccc12
REMARK SMILES IDX 10 1 9 2 7 3 8 4 6 5 4 6 5 7 3 8 16 9 22 10 17 11 21 12
REMARK SMILES IDX 18 13 20 14 19 15 2 16 1 17 11 18 12 19 13 20 14 21 15 22
REMARK H PARENT
ROOT
ATOM      1  O   UNL     1      99.069  48.110  -9.478  1.00  0.00    -0.482 OA
ENDROOT
BRANCH   1   2
ATOM      2  C   UNL     1      99.034  49.369  -8.959  1.00  0.00     0.206 A 
ATOM      3  O   UNL     1      97.766  48.760  -6.953  1.00  0.00    -0.460 OA
ATOM      4  C   UNL     1      98.407  49.660  -7.751  1.00  0.00     0.183 A 
ATOM      5  C   UNL     1      97.298  49.448  -5.879  1.00  0.00     0.197 A 
ATOM      6  C   UNL     1      98.348  50.931  -7.186  1.00  0.00     0.067 A 
ATOM      7  C   UNL     1      97.627  50.780  -5.972  1.00  0.00     0.055 A 
ATOM      8  C   UNL     1      98.957  52.004  -7.866  1.00  0.00     0.141 A 
ATOM      9  C   UNL     1      99.626  50.458  -9.604  1.00  0.00     0.187 A 
ATOM     10  C   UNL     1      99.600  51.753  -9.088  1.00  0.00     0.064 A 
ATOM     11  O   UNL     1     100.270  50.196 -10.836  1.00  0.00    -0.418 OA
ATOM     12  C   UNL     1     100.245  52.820  -9.838  1.00  0.00     0.023 A 
ATOM     13  C   UNL     1     100.895  51.200 -11.568  1.00  0.00     0.336 A 
ATOM     14  C   UNL     1     100.851  52.558 -10.999  1.00  0.00     0.095 A 
ATOM     15  O   UNL     1     101.456  50.974 -12.634  1.00  0.00    -0.246 OA
BRANCH   8  16
ATOM     16  O   UNL     1      98.915  53.265  -7.333  1.00  0.00    -0.495 OA
ATOM     17  C   UNL     1      99.832  53.549  -6.283  1.00  0.00     0.278 C 
ENDBRANCH   8  16
ENDBRANCH   1   2
BRANCH   1  18
ATOM     18  C   UNL     1     100.354  47.514  -9.649  1.00  0.00     0.257 C 
BRANCH  18  19
ATOM     19  C   UNL     1     100.370  46.167  -8.997  1.00  0.00     0.012 C 
BRANCH  19  20
ATOM     20  C   UNL     1     100.671  45.865  -7.720  1.00  0.00    -0.077 C 
ATOM     21  C   UNL     1     101.218  44.506  -7.369  1.00  0.00     0.039 C 
ATOM     22  C   UNL     1     100.509  46.786  -6.544  1.00  0.00     0.039 C 
ENDBRANCH  19  20
ENDBRANCH  18  19
ENDBRANCH   1  18
TORSDOF 5
ENDMDL
MODEL 2
REMARK VINA RESULT:    -8.572      2.016      5.414
REMARK INTER + INTRA:         -11.274
REMARK INTER:                 -11.232
REMARK INTRA:                  -0.042
REMARK UNBOUND:                -0.197
REMARK SMILES COc1c2ccoc2c(OCC=C(C)C)c2oc(=O)ccc12
REMARK SMILES IDX 10 1 9 2 7 3 8 4 6 5 4 6 5 7 3 8 16 9 22 10 17 11 21 12
REMARK SMILES IDX 18 13 20 14 19 15 2 16 1 17 11 18 12 19 13 20 14 21 15 22
REMARK H PARENT
ROOT
ATOM      1  O   UNL     1      97.969  50.013  -7.858  1.00  0.00    -0.482 OA
ENDROOT
BRANCH   1   2
ATOM      2  C   UNL     1      98.816  48.951  -7.959  1.00  0.00     0.206 A 
ATOM      3  O   UNL     1      99.108  48.654  -5.544  1.00  0.00    -0.460 OA
ATOM      4  C   UNL     1      99.349  48.314  -6.842  1.00  0.00     0.183 A 
ATOM      5  C   UNL     1      99.815  47.790  -4.771  1.00  0.00     0.197 A 
ATOM      6  C   UNL     1     100.217  47.227  -6.901  1.00  0.00     0.067 A 
ATOM      7  C   UNL     1     100.511  46.896  -5.552  1.00  0.00     0.055 A 
ATOM      8  C   UNL     1     100.590  46.724  -8.163  1.00  0.00     0.141 A 
ATOM      9  C   UNL     1      99.208  48.425  -9.193  1.00  0.00     0.187 A 
ATOM     10  C   UNL     1     100.074  47.338  -9.315  1.00  0.00     0.064 A 
ATOM     11  O   UNL     1      98.684  49.050 -10.348  1.00  0.00    -0.418 OA
ATOM     12  C   UNL     1     100.423  46.866 -10.646  1.00  0.00     0.023 A 
ATOM     13  C   UNL     1      99.003  48.614 -11.630  1.00  0.00     0.336 A 
ATOM     14  C   UNL     1      99.920  47.465 -11.728  1.00  0.00     0.095 A 
ATOM     15  O   UNL     1      98.548  49.154 -12.631  1.00  0.00    -0.246 OA
BRANCH   8  16
ATOM     16  O   UNL     1     101.441  45.655  -8.251  1.00  0.00    -0.495 OA
ATOM     17  C   UNL     1     101.047  44.464  -7.580  1.00  0.00     0.278 C 
ENDBRANCH   8  16
ENDBRANCH   1   2
BRANCH   1  18
ATOM     18  C   UNL     1      98.509  51.302  -8.146  1.00  0.00     0.257 C 
BRANCH  18  19
ATOM     19  C   UNL     1      98.849  51.998  -6.865  1.00  0.00     0.012 C 
BRANCH  19  20
ATOM     20  C   UNL     1      98.681  53.298  -6.555  1.00  0.00    -0.077 C 
ATOM     21  C   UNL     1      97.451  53.749  -5.812  1.00  0.00     0.039 C 
ATOM     22  C   UNL     1      99.640  54.405  -6.888  1.00  0.00     0.039 C 
ENDBRANCH  19  20
ENDBRANCH  18  19
ENDBRANCH   1  18
TORSDOF 5
ENDMDL
MODEL 3
REMARK VINA RESULT:    -8.391      2.185      5.054
REMARK INTER + INTRA:         -11.040
REMARK INTER:                 -10.907
REMARK INTRA:                  -0.133
REMARK UNBOUND:                -0.197
REMARK SMILES COc1c2ccoc2c(OCC=C(C)C)c2oc(=O)ccc12
REMARK SMILES IDX 10 1 9 2 7 3 8 4 6 5 4 6 5 7 3 8 16 9 22 10 17 11 21 12
REMARK SMILES IDX 18 13 20 14 19 15 2 16 1 17 11 18 12 19 13 20 14 21 15 22
REMARK H PARENT
ROOT
ATOM      1  O   UNL     1      96.840  49.214  -7.656  1.00  0.00    -0.482 OA
ENDROOT
BRANCH   1   2
ATOM      2  C   UNL     1      97.878  49.861  -8.255  1.00  0.00     0.206 A 
ATOM      3  O   UNL     1      98.298  48.125  -9.933  1.00  0.00    -0.460 OA
ATOM      4  C   UNL     1      98.563  49.324  -9.342  1.00  0.00     0.183 A 
ATOM      5  C   UNL     1      99.188  47.980 -10.949  1.00  0.00     0.197 A 
ATOM      6  C   UNL     1      99.628  49.951  -9.982  1.00  0.00     0.067 A 
ATOM      7  C   UNL     1     100.024  49.070 -11.023  1.00  0.00     0.055 A 
ATOM      8  C   UNL     1     100.055  51.209  -9.514  1.00  0.00     0.141 A 
ATOM      9  C   UNL     1      98.330  51.109  -7.819  1.00  0.00     0.187 A 
ATOM     10  C   UNL     1      99.392  51.785  -8.420  1.00  0.00     0.064 A 
ATOM     11  O   UNL     1      97.656  51.681  -6.715  1.00  0.00    -0.418 OA
ATOM     12  C   UNL     1      99.787  53.081  -7.889  1.00  0.00     0.023 A 
ATOM     13  C   UNL     1      98.017  52.919  -6.193  1.00  0.00     0.336 A 
ATOM     14  C   UNL     1      99.142  53.609  -6.847  1.00  0.00     0.095 A 
ATOM     15  O   UNL     1      97.432  53.416  -5.238  1.00  0.00    -0.246 OA
BRANCH   8  16
ATOM     16  O   UNL     1     101.100  51.849 -10.125  1.00  0.00    -0.495 OA
ATOM     17  C   UNL     1     100.802  52.582 -11.308  1.00  0.00     0.278 C 
ENDBRANCH   8  16
ENDBRANCH   1   2
BRANCH   1  18
ATOM     18  C   UNL     1      97.020  48.815  -6.298  1.00  0.00     0.257 C 
BRANCH  18  19
ATOM     19  C   UNL     1      95.727  48.963  -5.559  1.00  0.00     0.012 C 
BRANCH  19  20
ATOM     20  C   UNL     1      94.515  48.490  -5.901  1.00  0.00    -0.077 C 
ATOM     21  C   UNL     1      93.308  49.390  -5.859  1.00  0.00     0.039 C 
ATOM     22  C   UNL     1      94.220  47.084  -6.343  1.00  0.00     0.039 C 
ENDBRANCH  19  20
ENDBRANCH  18  19
ENDBRANCH   1  18
TORSDOF 5
ENDMDL
MODEL 4
REMARK VINA RESULT:    -8.353      0.663      3.960
REMARK INTER + INTRA:         -10.991
REMARK INTER:                 -11.156
REMARK INTRA:                   0.164
REMARK UNBOUND:                -0.197
REMARK SMILES COc1c2ccoc2c(OCC=C(C)C)c2oc(=O)ccc12
REMARK SMILES IDX 10 1 9 2 7 3 8 4 6 5 4 6 5 7 3 8 16 9 22 10 17 11 21 12
REMARK SMILES IDX 18 13 20 14 19 15 2 16 1 17 11 18 12 19 13 20 14 21 15 22
REMARK H PARENT
ROOT
ATOM      1  O   UNL     1      99.260  48.092  -9.849  1.00  0.00    -0.482 OA
ENDROOT
BRANCH   1   2
ATOM      2  C   UNL     1      99.300  49.383  -9.417  1.00  0.00     0.206 A 
ATOM      3  O   UNL     1     100.540  50.237 -11.350  1.00  0.00    -0.460 OA
ATOM      4  C   UNL     1      99.917  50.395 -10.149  1.00  0.00     0.183 A 
ATOM      5  C   UNL     1     101.003  51.460 -11.719  1.00  0.00     0.197 A 
ATOM      6  C   UNL     1      99.980  51.725  -9.744  1.00  0.00     0.067 A 
ATOM      7  C   UNL     1     100.687  52.406 -10.771  1.00  0.00     0.055 A 
ATOM      8  C   UNL     1      99.388  52.091  -8.520  1.00  0.00     0.141 A 
ATOM      9  C   UNL     1      98.725  49.784  -8.208  1.00  0.00     0.187 A 
ATOM     10  C   UNL     1      98.757  51.101  -7.751  1.00  0.00     0.064 A 
ATOM     11  O   UNL     1      98.091  48.780  -7.441  1.00  0.00    -0.418 OA
ATOM     12  C   UNL     1      98.129  51.416  -6.477  1.00  0.00     0.023 A 
ATOM     13  C   UNL     1      97.484  49.059  -6.221  1.00  0.00     0.336 A 
ATOM     14  C   UNL     1      97.534  50.458  -5.762  1.00  0.00     0.095 A 
ATOM     15  O   UNL     1      96.932  48.190  -5.556  1.00  0.00    -0.246 OA
BRANCH   8  16
ATOM     16  O   UNL     1      99.435  53.393  -8.098  1.00  0.00    -0.495 OA
ATOM     17  C   UNL     1      99.966  53.628  -6.799  1.00  0.00     0.278 C 
ENDBRANCH   8  16
ENDBRANCH   1   2
BRANCH   1  18
ATOM     18  C   UNL     1     100.479  47.352  -9.794  1.00  0.00     0.257 C 
BRANCH  18  19
ATOM     19  C   UNL     1     100.276  46.118  -8.970  1.00  0.00     0.012 C 
BRANCH  19  20
ATOM     20  C   UNL     1     100.658  45.896  -7.698  1.00  0.00    -0.077 C 
ATOM     21  C   UNL     1     101.321  44.597  -7.320  1.00  0.00     0.039 C 
ATOM     22  C   UNL     1     100.485  46.855  -6.554  1.00  0.00     0.039 C 
ENDBRANCH  19  20
ENDBRANCH  18  19
ENDBRANCH   1  18
TORSDOF 5
ENDMDL
MODEL 5
REMARK VINA RESULT:    -8.296      1.603      4.221
REMARK INTER + INTRA:         -10.918
REMARK INTER:                 -10.628
REMARK INTRA:                  -0.290
REMARK UNBOUND:                -0.197
REMARK SMILES COc1c2ccoc2c(OCC=C(C)C)c2oc(=O)ccc12
REMARK SMILES IDX 10 1 9 2 7 3 8 4 6 5 4 6 5 7 3 8 16 9 22 10 17 11 21 12
REMARK SMILES IDX 18 13 20 14 19 15 2 16 1 17 11 18 12 19 13 20 14 21 15 22
REMARK H PARENT
ROOT
ATOM      1  O   UNL     1      97.075  49.348  -7.407  1.00  0.00    -0.482 OA
ENDROOT
BRANCH   1   2
ATOM      2  C   UNL     1      98.070  49.988  -8.081  1.00  0.00     0.206 A 
ATOM      3  O   UNL     1      98.471  48.176  -9.681  1.00  0.00    -0.460 OA
ATOM      4  C   UNL     1      98.726  49.412  -9.165  1.00  0.00     0.183 A 
ATOM      5  C   UNL     1      99.324  48.000 -10.724  1.00  0.00     0.197 A 
ATOM      6  C   UNL     1      99.747  50.030  -9.881  1.00  0.00     0.067 A 
ATOM      7  C   UNL     1     100.126  49.105 -10.889  1.00  0.00     0.055 A 
ATOM      8  C   UNL     1     100.157  51.322  -9.498  1.00  0.00     0.141 A 
ATOM      9  C   UNL     1      98.504  51.269  -7.730  1.00  0.00     0.187 A 
ATOM     10  C   UNL     1      99.522  51.939  -8.409  1.00  0.00     0.064 A 
ATOM     11  O   UNL     1      97.859  51.882  -6.631  1.00  0.00    -0.418 OA
ATOM     12  C   UNL     1      99.902  53.271  -7.964  1.00  0.00     0.023 A 
ATOM     13  C   UNL     1      98.205  53.155  -6.191  1.00  0.00     0.336 A 
ATOM     14  C   UNL     1      99.284  53.838  -6.925  1.00  0.00     0.095 A 
ATOM     15  O   UNL     1      97.645  53.689  -5.240  1.00  0.00    -0.246 OA
BRANCH   8  16
ATOM     16  O   UNL     1     101.159  51.955 -10.184  1.00  0.00    -0.495 OA
ATOM     17  C   UNL     1     100.795  52.608 -11.395  1.00  0.00     0.278 C 
ENDBRANCH   8  16
ENDBRANCH   1   2
BRANCH   1  18
ATOM     18  C   UNL     1      97.283  49.108  -6.015  1.00  0.00     0.257 C 
BRANCH  18  19
ATOM     19  C   UNL     1      98.362  48.085  -5.842  1.00  0.00     0.012 C 
BRANCH  19  20
ATOM     20  C   UNL     1      99.643  48.281  -5.477  1.00  0.00    -0.077 C 
ATOM     21  C   UNL     1     100.593  47.117  -5.381  1.00  0.00     0.039 C 
ATOM     22  C   UNL     1     100.260  49.609  -5.138  1.00  0.00     0.039 C 
ENDBRANCH  19  20
ENDBRANCH  18  19
ENDBRANCH   1  18
TORSDOF 5
ENDMDL
MODEL 6
REMARK VINA RESULT:    -8.292      2.429      4.928
REMARK INTER + INTRA:         -10.912
REMARK INTER:                 -10.474
REMARK INTRA:                  -0.438
REMARK UNBOUND:                -0.197
REMARK SMILES COc1c2ccoc2c(OCC=C(C)C)c2oc(=O)ccc12
REMARK SMILES IDX 10 1 9 2 7 3 8 4 6 5 4 6 5 7 3 8 16 9 22 10 17 11 21 12
REMARK SMILES IDX 18 13 20 14 19 15 2 16 1 17 11 18 12 19 13 20 14 21 15 22
REMARK H PARENT
ROOT
ATOM      1  O   UNL     1      99.858  48.090 -10.812  1.00  0.00    -0.482 OA
ENDROOT
BRANCH   1   2
ATOM      2  C   UNL     1      99.763  48.479  -9.510  1.00  0.00     0.206 A 
ATOM      3  O   UNL     1      98.985  50.750 -10.000  1.00  0.00    -0.460 OA
ATOM      4  C   UNL     1      99.344  49.754  -9.142  1.00  0.00     0.183 A 
ATOM      5  C   UNL     1      98.645  51.824  -9.240  1.00  0.00     0.197 A 
ATOM      6  C   UNL     1      99.233  50.192  -7.825  1.00  0.00     0.067 A 
ATOM      7  C   UNL     1      98.779  51.535  -7.902  1.00  0.00     0.055 A 
ATOM      8  C   UNL     1      99.561  49.301  -6.784  1.00  0.00     0.141 A 
ATOM      9  C   UNL     1     100.080  47.624  -8.451  1.00  0.00     0.187 A 
ATOM     10  C   UNL     1      99.989  48.005  -7.113  1.00  0.00     0.064 A 
ATOM     11  O   UNL     1     100.510  46.321  -8.792  1.00  0.00    -0.418 OA
ATOM     12  C   UNL     1     100.344  47.040  -6.084  1.00  0.00     0.023 A 
ATOM     13  C   UNL     1     100.853  45.382  -7.824  1.00  0.00     0.336 A 
ATOM     14  C   UNL     1     100.748  45.812  -6.419  1.00  0.00     0.095 A 
ATOM     15  O   UNL     1     101.223  44.251  -8.118  1.00  0.00    -0.246 OA
BRANCH   8  16
ATOM     16  O   UNL     1      99.461  49.704  -5.479  1.00  0.00    -0.495 OA
ATOM     17  C   UNL     1     100.392  50.685  -5.037  1.00  0.00     0.278 C 
ENDBRANCH   8  16
ENDBRANCH   1   2
BRANCH   1  18
ATOM     18  C   UNL     1      98.756  47.361 -11.353  1.00  0.00     0.257 C 
BRANCH  18  19
ATOM     19  C   UNL     1      97.750  48.319 -11.910  1.00  0.00     0.012 C 
BRANCH  19  20
ATOM     20  C   UNL     1      96.442  48.421 -11.605  1.00  0.00    -0.077 C 
ATOM     21  C   UNL     1      95.429  47.557 -12.308  1.00  0.00     0.039 C 
ATOM     22  C   UNL     1      95.854  49.355 -10.586  1.00  0.00     0.039 C 
ENDBRANCH  19  20
ENDBRANCH  18  19
ENDBRANCH   1  18
TORSDOF 5
ENDMDL
MODEL 7
REMARK VINA RESULT:    -8.290      1.621      2.648
REMARK INTER + INTRA:         -10.909
REMARK INTER:                 -11.160
REMARK INTRA:                   0.250
REMARK UNBOUND:                -0.197
REMARK SMILES COc1c2ccoc2c(OCC=C(C)C)c2oc(=O)ccc12
REMARK SMILES IDX 10 1 9 2 7 3 8 4 6 5 4 6 5 7 3 8 16 9 22 10 17 11 21 12
REMARK SMILES IDX 18 13 20 14 19 15 2 16 1 17 11 18 12 19 13 20 14 21 15 22
REMARK H PARENT
ROOT
ATOM      1  O   UNL     1      99.404  47.708  -7.664  1.00  0.00    -0.482 OA
ENDROOT
BRANCH   1   2
ATOM      2  C   UNL     1      99.503  48.891  -8.331  1.00  0.00     0.206 A 
ATOM      3  O   UNL     1      98.855  50.288  -6.425  1.00  0.00    -0.460 OA
ATOM      4  C   UNL     1      99.237  50.114  -7.722  1.00  0.00     0.183 A 
ATOM      5  C   UNL     1      98.699  51.624  -6.235  1.00  0.00     0.197 A 
ATOM      6  C   UNL     1      99.326  51.345  -8.366  1.00  0.00     0.067 A 
ATOM      7  C   UNL     1      98.975  52.316  -7.391  1.00  0.00     0.055 A 
ATOM      8  C   UNL     1      99.708  51.375  -9.722  1.00  0.00     0.141 A 
ATOM      9  C   UNL     1      99.880  48.961  -9.675  1.00  0.00     0.187 A 
ATOM     10  C   UNL     1      99.986  50.163 -10.373  1.00  0.00     0.064 A 
ATOM     11  O   UNL     1     100.156  47.735 -10.323  1.00  0.00    -0.418 OA
ATOM     12  C   UNL     1     100.384  50.128 -11.772  1.00  0.00     0.023 A 
ATOM     13  C   UNL     1     100.540  47.679 -11.659  1.00  0.00     0.336 A 
ATOM     14  C   UNL     1     100.643  48.964 -12.372  1.00  0.00     0.095 A 
ATOM     15  O   UNL     1     100.783  46.617 -12.221  1.00  0.00    -0.246 OA
BRANCH   8  16
ATOM     16  O   UNL     1      99.805  52.572 -10.380  1.00  0.00    -0.495 OA
ATOM     17  C   UNL     1     101.094  53.171 -10.438  1.00  0.00     0.278 C 
ENDBRANCH   8  16
ENDBRANCH   1   2
BRANCH   1  18
ATOM     18  C   UNL     1     100.351  47.469  -6.623  1.00  0.00     0.257 C 
BRANCH  18  19
ATOM     19  C   UNL     1     100.589  45.996  -6.494  1.00  0.00     0.012 C 
BRANCH  19  20
ATOM     20  C   UNL     1     101.006  45.135  -7.440  1.00  0.00    -0.077 C 
ATOM     21  C   UNL     1     101.255  43.690  -7.097  1.00  0.00     0.039 C 
ATOM     22  C   UNL     1     101.264  45.479  -8.880  1.00  0.00     0.039 C 
ENDBRANCH  19  20
ENDBRANCH  18  19
ENDBRANCH   1  18
TORSDOF 5
ENDMDL
MODEL 8
REMARK VINA RESULT:    -7.980      1.881      4.252
REMARK INTER + INTRA:         -10.509
REMARK INTER:                 -10.493
REMARK INTRA:                  -0.016
REMARK UNBOUND:                -0.197
REMARK SMILES COc1c2ccoc2c(OCC=C(C)C)c2oc(=O)ccc12
REMARK SMILES IDX 10 1 9 2 7 3 8 4 6 5 4 6 5 7 3 8 16 9 22 10 17 11 21 12
REMARK SMILES IDX 18 13 20 14 19 15 2 16 1 17 11 18 12 19 13 20 14 21 15 22
REMARK H PARENT
ROOT
ATOM      1  O   UNL     1      98.583  49.016  -6.226  1.00  0.00    -0.482 OA
ENDROOT
BRANCH   1   2
ATOM      2  C   UNL     1      98.936  49.886  -7.213  1.00  0.00     0.206 A 
ATOM      3  O   UNL     1      98.671  51.904  -5.849  1.00  0.00    -0.460 OA
ATOM      4  C   UNL     1      98.972  51.263  -7.013  1.00  0.00     0.183 A 
ATOM      5  C   UNL     1      98.831  53.234  -6.077  1.00  0.00     0.197 A 
ATOM      6  C   UNL     1      99.325  52.187  -7.993  1.00  0.00     0.067 A 
ATOM      7  C   UNL     1      99.231  53.461  -7.373  1.00  0.00     0.055 A 
ATOM      8  C   UNL     1      99.672  51.716  -9.275  1.00  0.00     0.141 A 
ATOM      9  C   UNL     1      99.285  49.457  -8.496  1.00  0.00     0.187 A 
ATOM     10  C   UNL     1      99.648  50.334  -9.518  1.00  0.00     0.064 A 
ATOM     11  O   UNL     1      99.257  48.063  -8.731  1.00  0.00    -0.418 OA
ATOM     12  C   UNL     1      99.994  49.787 -10.821  1.00  0.00     0.023 A 
ATOM     13  C   UNL     1      99.586  47.519  -9.969  1.00  0.00     0.336 A 
ATOM     14  C   UNL     1      99.964  48.468 -11.029  1.00  0.00     0.095 A 
ATOM     15  O   UNL     1      99.564  46.311 -10.173  1.00  0.00    -0.246 OA
BRANCH   8  16
ATOM     16  O   UNL     1     100.025  52.602 -10.258  1.00  0.00    -0.495 OA
ATOM     17  C   UNL     1     101.417  52.784 -10.488  1.00  0.00     0.278 C 
ENDBRANCH   8  16
ENDBRANCH   1   2
BRANCH   1  18
ATOM     18  C   UNL     1      97.345  49.259  -5.558  1.00  0.00     0.257 C 
BRANCH  18  19
ATOM     19  C   UNL     1      96.257  48.480  -6.228  1.00  0.00     0.012 C 
BRANCH  19  20
ATOM     20  C   UNL     1      94.941  48.475  -5.943  1.00  0.00    -0.077 C 
ATOM     21  C   UNL     1      94.084  47.299  -6.328  1.00  0.00     0.039 C 
ATOM     22  C   UNL     1      94.196  49.578  -5.244  1.00  0.00     0.039 C 
ENDBRANCH  19  20
ENDBRANCH  18  19
ENDBRANCH   1  18
TORSDOF 5
ENDMDL
MODEL 9
REMARK VINA RESULT:    -7.745      2.347      5.331
REMARK INTER + INTRA:         -10.206
REMARK INTER:                  -9.675
REMARK INTRA:                  -0.531
REMARK UNBOUND:                -0.197
REMARK SMILES COc1c2ccoc2c(OCC=C(C)C)c2oc(=O)ccc12
REMARK SMILES IDX 10 1 9 2 7 3 8 4 6 5 4 6 5 7 3 8 16 9 22 10 17 11 21 12
REMARK SMILES IDX 18 13 20 14 19 15 2 16 1 17 11 18 12 19 13 20 14 21 15 22
REMARK H PARENT
ROOT
ATOM      1  O   UNL     1      97.720  51.797  -8.341  1.00  0.00    -0.482 OA
ENDROOT
BRANCH   1   2
ATOM      2  C   UNL     1      98.228  51.089  -9.388  1.00  0.00     0.206 A 
ATOM      3  O   UNL     1     100.226  52.481  -9.662  1.00  0.00    -0.460 OA
ATOM      4  C   UNL     1      99.428  51.431 -10.006  1.00  0.00     0.183 A 
ATOM      5  C   UNL     1     101.290  52.463 -10.507  1.00  0.00     0.197 A 
ATOM      6  C   UNL     1      99.982  50.737 -11.077  1.00  0.00     0.067 A 
ATOM      7  C   UNL     1     101.189  51.415 -11.392  1.00  0.00     0.055 A 
ATOM      8  C   UNL     1      99.301  49.611 -11.582  1.00  0.00     0.141 A 
ATOM      9  C   UNL     1      97.581  49.968  -9.915  1.00  0.00     0.187 A 
ATOM     10  C   UNL     1      98.088  49.232 -10.986  1.00  0.00     0.064 A 
ATOM     11  O   UNL     1      96.359  49.595  -9.310  1.00  0.00    -0.418 OA
ATOM     12  C   UNL     1      97.336  48.081 -11.463  1.00  0.00     0.023 A 
ATOM     13  C   UNL     1      95.626  48.497  -9.748  1.00  0.00     0.336 A 
ATOM     14  C   UNL     1      96.184  47.739 -10.882  1.00  0.00     0.095 A 
ATOM     15  O   UNL     1      94.568  48.170  -9.223  1.00  0.00    -0.246 OA
BRANCH   8  16
ATOM     16  O   UNL     1      99.823  48.908 -12.634  1.00  0.00    -0.495 OA
ATOM     17  C   UNL     1     100.744  47.870 -12.319  1.00  0.00     0.278 C 
ENDBRANCH   8  16
ENDBRANCH   1   2
BRANCH   1  18
ATOM     18  C   UNL     1      98.514  51.865  -7.157  1.00  0.00     0.257 C 
BRANCH  18  19
ATOM     19  C   UNL     1      98.384  50.583  -6.395  1.00  0.00     0.012 C 
BRANCH  19  20
ATOM     20  C   UNL     1      99.307  49.618  -6.227  1.00  0.00    -0.077 C 
ATOM     21  C   UNL     1      99.366  48.449  -7.173  1.00  0.00     0.039 C 
ATOM     22  C   UNL     1     100.341  49.581  -5.137  1.00  0.00     0.039 C 
ENDBRANCH  19  20
ENDBRANCH  18  19
ENDBRANCH   1  18
TORSDOF 5
ENDMDL
