REMARK SMILES COc1c2ccoc2c(OCC=C(C)C)c2oc(=O)ccc12
REMARK SMILES IDX 10 1 9 2 7 3 8 4 6 5 4 6 5 7 3 8 16 9 22 10 17 11 21 12
REMARK SMILES IDX 18 13 20 14 19 15 2 16 1 17 11 18 12 19 13 20 14 21 15 22
REMARK H PARENT
ROOT
ATOM      1  O   UNL     1      -1.433  -0.780  -0.632  1.00  0.00    -0.482 OA
ENDROOT
BRANCH   1   2
ATOM      2  C   UNL     1      -0.121  -0.572  -0.330  1.00  0.00     0.206 A 
ATOM      3  O   UNL     1       0.482  -2.946  -0.264  1.00  0.00    -0.460 OA
ATOM      4  C   UNL     1       0.779  -1.620  -0.158  1.00  0.00     0.183 A 
ATOM      5  C   UNL     1       1.632  -3.629  -0.025  1.00  0.00     0.197 A 
ATOM      6  C   UNL     1       2.126  -1.452   0.151  1.00  0.00     0.067 A 
ATOM      7  C   UNL     1       2.668  -2.762   0.234  1.00  0.00     0.055 A 
ATOM      8  C   UNL     1       2.629  -0.145   0.303  1.00  0.00     0.141 A 
ATOM      9  C   UNL     1       0.414   0.709  -0.171  1.00  0.00     0.187 A 
ATOM     10  C   UNL     1       1.754   0.940   0.138  1.00  0.00     0.064 A 
ATOM     11  O   UNL     1      -0.475   1.796  -0.338  1.00  0.00    -0.418 OA
ATOM     12  C   UNL     1       2.213   2.313   0.284  1.00  0.00     0.023 A 
ATOM     13  C   UNL     1      -0.057   3.116  -0.205  1.00  0.00     0.336 A 
ATOM     14  C   UNL     1       1.363   3.330   0.123  1.00  0.00     0.095 A 
ATOM     15  O   UNL     1      -0.826   4.059  -0.352  1.00  0.00    -0.246 OA
BRANCH   8  16
ATOM     16  O   UNL     1       3.950   0.050   0.606  1.00  0.00    -0.495 OA
ATOM     17  C   UNL     1       4.848   0.178  -0.490  1.00  0.00     0.278 C 
ENDBRANCH   8  16
ENDBRANCH   1   2
BRANCH   1  18
ATOM     18  C   UNL     1      -2.337  -0.916   0.464  1.00  0.00     0.257 C 
BRANCH  18  19
ATOM     19  C   UNL     1      -3.718  -1.165  -0.057  1.00  0.00     0.012 C 
BRANCH  19  20
ATOM     20  C   UNL     1      -4.833  -0.444   0.165  1.00  0.00    -0.077 C 
ATOM     21  C   UNL     1      -6.143  -0.862  -0.449  1.00  0.00     0.039 C 
ATOM     22  C   UNL     1      -4.915   0.800   1.004  1.00  0.00     0.039 C 
ENDBRANCH  19  20
ENDBRANCH  18  19
ENDBRANCH   1  18
TORSDOF 5
