REMARK SMILES O=c1ccc2ccc3occc3c2o1
REMARK SMILES IDX 9 1 14 2 1 3 12 4 13 5 5 6 8 7 6 8 7 9 11 10 4 11 10 12 3 13
REMARK SMILES IDX 2 14
REMARK H PARENT
ROOT
ATOM      1  O   UNL     1       3.279   0.117   0.000  1.00  0.00    -0.464 OA
ATOM      2  O   UNL     1      -1.305   1.153   0.000  1.00  0.00    -0.422 OA
ATOM      3  O   UNL     1      -3.537   1.667  -0.000  1.00  0.00    -0.246 OA
ATOM      4  C   UNL     1       1.065   0.566   0.000  1.00  0.00     0.064 A 
ATOM      5  C   UNL     1      -0.284   0.173   0.000  1.00  0.00     0.149 A 
ATOM      6  C   UNL     1      -0.620  -1.186   0.000  1.00  0.00     0.018 A 
ATOM      7  C   UNL     1       2.032  -0.433   0.000  1.00  0.00     0.137 A 
ATOM      8  C   UNL     1       0.391  -2.156  -0.000  1.00  0.00     0.016 A 
ATOM      9  C   UNL     1       1.746  -1.798  -0.000  1.00  0.00     0.048 A 
ATOM     10  C   UNL     1       1.777   1.794  -0.000  1.00  0.00     0.054 A 
ATOM     11  C   UNL     1      -2.026  -1.558   0.000  1.00  0.00     0.019 A 
ATOM     12  C   UNL     1       3.113   1.466   0.000  1.00  0.00     0.196 A 
ATOM     13  C   UNL     1      -2.977  -0.621   0.000  1.00  0.00     0.094 A 
ATOM     14  C   UNL     1      -2.654   0.817  -0.000  1.00  0.00     0.336 A 
ENDROOT
TORSDOF 0
