MODEL 1
REMARK VINA RESULT:    -8.621      0.000      0.000
REMARK INTER + INTRA:          -8.621
REMARK INTER:                  -8.621
REMARK INTRA:                   0.000
REMARK UNBOUND:                 0.000
REMARK SMILES O=c1ccc2cc3ccoc3cc2o1
REMARK SMILES IDX 10 1 14 2 1 3 7 4 5 5 11 6 13 7 6 8 12 9 8 10 4 11 9 12 3 13
REMARK SMILES IDX 2 14
REMARK H PARENT
ROOT
ATOM      1  O   UNL     1      99.642  49.808 -11.456  1.00  0.00    -0.464 OA
ATOM      2  O   UNL     1      99.796  48.168  -6.907  1.00  0.00    -0.423 OA
ATOM      3  O   UNL     1      99.908  47.301  -4.790  1.00  0.00    -0.246 OA
ATOM      4  C   UNL     1     100.419  47.730 -11.027  1.00  0.00     0.021 A 
ATOM      5  C   UNL     1     100.538  46.813  -8.790  1.00  0.00     0.018 A 
ATOM      6  C   UNL     1      99.896  48.896 -10.475  1.00  0.00     0.137 A 
ATOM      7  C   UNL     1     100.012  48.006  -8.295  1.00  0.00     0.142 A 
ATOM      8  C   UNL     1     100.747  46.662 -10.169  1.00  0.00     0.024 A 
ATOM      9  C   UNL     1      99.674  49.087  -9.114  1.00  0.00     0.095 A 
ATOM     10  C   UNL     1     100.479  47.960 -12.427  1.00  0.00     0.050 A 
ATOM     11  C   UNL     1     100.855  45.746  -7.852  1.00  0.00     0.019 A 
ATOM     12  C   UNL     1      99.998  49.231 -12.633  1.00  0.00     0.196 A 
ATOM     13  C   UNL     1     100.647  45.912  -6.544  1.00  0.00     0.094 A 
ATOM     14  C   UNL     1     100.093  47.162  -5.994  1.00  0.00     0.336 A 
ENDROOT
TORSDOF 0
ENDMDL
MODEL 2
REMARK VINA RESULT:    -8.573      2.013      4.488
REMARK INTER + INTRA:          -8.573
REMARK INTER:                  -8.573
REMARK INTRA:                   0.000
REMARK UNBOUND:                 0.000
REMARK SMILES O=c1ccc2cc3ccoc3cc2o1
REMARK SMILES IDX 10 1 14 2 1 3 7 4 5 5 11 6 13 7 6 8 12 9 8 10 4 11 9 12 3 13
REMARK SMILES IDX 2 14
REMARK H PARENT
ROOT
ATOM      1  O   UNL     1     100.674  45.826  -6.355  1.00  0.00    -0.464 OA
ATOM      2  O   UNL     1      98.883  50.234  -7.232  1.00  0.00    -0.423 OA
ATOM      3  O   UNL     1      98.051  52.304  -7.751  1.00  0.00    -0.246 OA
ATOM      4  C   UNL     1     100.516  46.582  -8.479  1.00  0.00     0.021 A 
ATOM      5  C   UNL     1      99.636  48.769  -9.027  1.00  0.00     0.018 A 
ATOM      6  C   UNL     1     100.291  46.875  -7.137  1.00  0.00     0.137 A 
ATOM      7  C   UNL     1      99.433  49.006  -7.668  1.00  0.00     0.142 A 
ATOM      8  C   UNL     1     100.183  47.548  -9.449  1.00  0.00     0.024 A 
ATOM      9  C   UNL     1      99.750  48.073  -6.677  1.00  0.00     0.095 A 
ATOM     10  C   UNL     1     101.069  45.274  -8.500  1.00  0.00     0.050 A 
ATOM     11  C   UNL     1      99.273  49.808  -9.980  1.00  0.00     0.019 A 
ATOM     12  C   UNL     1     101.144  44.862  -7.191  1.00  0.00     0.196 A 
ATOM     13  C   UNL     1      98.754  50.963  -9.556  1.00  0.00     0.094 A 
ATOM     14  C   UNL     1      98.529  51.239  -8.126  1.00  0.00     0.336 A 
ENDROOT
TORSDOF 0
ENDMDL
MODEL 3
REMARK VINA RESULT:    -8.416      2.339      3.798
REMARK INTER + INTRA:          -8.416
REMARK INTER:                  -8.416
REMARK INTRA:                   0.000
REMARK UNBOUND:                 0.000
REMARK SMILES O=c1ccc2cc3ccoc3cc2o1
REMARK SMILES IDX 10 1 14 2 1 3 7 4 5 5 11 6 13 7 6 8 12 9 8 10 4 11 9 12 3 13
REMARK SMILES IDX 2 14
REMARK H PARENT
ROOT
ATOM      1  O   UNL     1      98.802  51.055  -5.877  1.00  0.00    -0.464 OA
ATOM      2  O   UNL     1     100.477  46.558  -6.492  1.00  0.00    -0.423 OA
ATOM      3  O   UNL     1     101.263  44.443  -6.887  1.00  0.00    -0.246 OA
ATOM      4  C   UNL     1      99.082  50.226  -7.961  1.00  0.00     0.021 A 
ATOM      5  C   UNL     1      99.912  47.991  -8.379  1.00  0.00     0.018 A 
ATOM      6  C   UNL     1      99.199  49.968  -6.598  1.00  0.00     0.137 A 
ATOM      7  C   UNL     1     100.008  47.791  -7.002  1.00  0.00     0.142 A 
ATOM      8  C   UNL     1      99.445  49.218  -8.875  1.00  0.00     0.024 A 
ATOM      9  C   UNL     1      99.658  48.767  -6.064  1.00  0.00     0.095 A 
ATOM     10  C   UNL     1      98.583  51.552  -8.061  1.00  0.00     0.050 A 
ATOM     11  C   UNL     1     100.301  46.909  -9.271  1.00  0.00     0.019 A 
ATOM     12  C   UNL     1      98.431  52.008  -6.773  1.00  0.00     0.196 A 
ATOM     13  C   UNL     1     100.743  45.751  -8.777  1.00  0.00     0.094 A 
ATOM     14  C   UNL     1     100.854  45.512  -7.327  1.00  0.00     0.336 A 
ENDROOT
TORSDOF 0
ENDMDL
MODEL 4
REMARK VINA RESULT:    -8.281      2.554      3.451
REMARK INTER + INTRA:          -8.281
REMARK INTER:                  -8.281
REMARK INTRA:                   0.000
REMARK UNBOUND:                 0.000
REMARK SMILES O=c1ccc2cc3ccoc3cc2o1
REMARK SMILES IDX 10 1 14 2 1 3 7 4 5 5 11 6 13 7 6 8 12 9 8 10 4 11 9 12 3 13
REMARK SMILES IDX 2 14
REMARK H PARENT
ROOT
ATOM      1  O   UNL     1     100.654  48.702 -12.344  1.00  0.00    -0.464 OA
ATOM      2  O   UNL     1      99.100  51.717  -8.895  1.00  0.00    -0.423 OA
ATOM      3  O   UNL     1      98.365  53.064  -7.194  1.00  0.00    -0.246 OA
ATOM      4  C   UNL     1     100.303  47.938 -10.247  1.00  0.00     0.021 A 
ATOM      5  C   UNL     1      99.527  49.361  -8.449  1.00  0.00     0.018 A 
ATOM      6  C   UNL     1     100.260  49.048 -11.086  1.00  0.00     0.137 A 
ATOM      7  C   UNL     1      99.505  50.436  -9.337  1.00  0.00     0.142 A 
ATOM      8  C   UNL     1      99.928  48.093  -8.898  1.00  0.00     0.024 A 
ATOM      9  C   UNL     1      99.869  50.322 -10.681  1.00  0.00     0.095 A 
ATOM     10  C   UNL     1     100.751  46.860 -11.056  1.00  0.00     0.050 A 
ATOM     11  C   UNL     1      99.126  49.586  -7.068  1.00  0.00     0.019 A 
ATOM     12  C   UNL     1     100.949  47.376 -12.315  1.00  0.00     0.196 A 
ATOM     13  C   UNL     1      98.747  50.800  -6.663  1.00  0.00     0.094 A 
ATOM     14  C   UNL     1      98.715  51.953  -7.580  1.00  0.00     0.336 A 
ENDROOT
TORSDOF 0
ENDMDL
MODEL 5
REMARK VINA RESULT:    -8.266      2.408      4.570
REMARK INTER + INTRA:          -8.266
REMARK INTER:                  -8.266
REMARK INTRA:                   0.000
REMARK UNBOUND:                 0.000
REMARK SMILES O=c1ccc2cc3ccoc3cc2o1
REMARK SMILES IDX 10 1 14 2 1 3 7 4 5 5 11 6 13 7 6 8 12 9 8 10 4 11 9 12 3 13
REMARK SMILES IDX 2 14
REMARK H PARENT
ROOT
ATOM      1  O   UNL     1      98.757  52.245  -8.081  1.00  0.00    -0.464 OA
ATOM      2  O   UNL     1     100.380  48.835 -11.105  1.00  0.00    -0.423 OA
ATOM      3  O   UNL     1     101.142  47.151 -12.457  1.00  0.00    -0.246 OA
ATOM      4  C   UNL     1      99.041  50.126  -7.350  1.00  0.00     0.021 A 
ATOM      5  C   UNL     1      99.847  48.346  -8.779  1.00  0.00     0.018 A 
ATOM      6  C   UNL     1      99.145  50.988  -8.438  1.00  0.00     0.137 A 
ATOM      7  C   UNL     1      99.929  49.256  -9.832  1.00  0.00     0.142 A 
ATOM      8  C   UNL     1      99.399  48.774  -7.520  1.00  0.00     0.024 A 
ATOM      9  C   UNL     1      99.583  50.604  -9.703  1.00  0.00     0.095 A 
ATOM     10  C   UNL     1      98.561  50.919  -6.274  1.00  0.00     0.050 A 
ATOM     11  C   UNL     1     100.233  46.963  -9.018  1.00  0.00     0.019 A 
ATOM     12  C   UNL     1      98.406  52.192  -6.769  1.00  0.00     0.196 A 
ATOM     13  C   UNL     1     100.656  46.578 -10.224  1.00  0.00     0.094 A 
ATOM     14  C   UNL     1     100.753  47.519 -11.354  1.00  0.00     0.336 A 
ENDROOT
TORSDOF 0
ENDMDL
MODEL 6
REMARK VINA RESULT:    -8.199      1.278      2.265
REMARK INTER + INTRA:          -8.199
REMARK INTER:                  -8.199
REMARK INTRA:                   0.000
REMARK UNBOUND:                 0.000
REMARK SMILES O=c1ccc2cc3ccoc3cc2o1
REMARK SMILES IDX 10 1 14 2 1 3 7 4 5 5 11 6 13 7 6 8 12 9 8 10 4 11 9 12 3 13
REMARK SMILES IDX 2 14
REMARK H PARENT
ROOT
ATOM      1  O   UNL     1     100.713  47.007 -11.678  1.00  0.00    -0.464 OA
ATOM      2  O   UNL     1     100.021  47.042  -6.890  1.00  0.00    -0.423 OA
ATOM      3  O   UNL     1      99.669  47.161  -4.630  1.00  0.00    -0.246 OA
ATOM      4  C   UNL     1     100.084  48.912 -10.639  1.00  0.00     0.021 A 
ATOM      5  C   UNL     1      99.712  49.039  -8.250  1.00  0.00     0.018 A 
ATOM      6  C   UNL     1     100.400  47.567 -10.475  1.00  0.00     0.137 A 
ATOM      7  C   UNL     1     100.037  47.686  -8.149  1.00  0.00     0.142 A 
ATOM      8  C   UNL     1      99.732  49.669  -9.504  1.00  0.00     0.024 A 
ATOM      9  C   UNL     1     100.391  46.903  -9.251  1.00  0.00     0.095 A 
ATOM     10  C   UNL     1     100.218  49.173 -12.029  1.00  0.00     0.050 A 
ATOM     11  C   UNL     1      99.359  49.766  -7.040  1.00  0.00     0.019 A 
ATOM     12  C   UNL     1     100.600  47.988 -12.612  1.00  0.00     0.196 A 
ATOM     13  C   UNL     1      99.346  49.146  -5.858  1.00  0.00     0.094 A 
ATOM     14  C   UNL     1      99.686  47.718  -5.722  1.00  0.00     0.336 A 
ENDROOT
TORSDOF 0
ENDMDL
MODEL 7
REMARK VINA RESULT:    -8.179      2.462      4.483
REMARK INTER + INTRA:          -8.179
REMARK INTER:                  -8.179
REMARK INTRA:                   0.000
REMARK UNBOUND:                 0.000
REMARK SMILES O=c1ccc2cc3ccoc3cc2o1
REMARK SMILES IDX 10 1 14 2 1 3 7 4 5 5 11 6 13 7 6 8 12 9 8 10 4 11 9 12 3 13
REMARK SMILES IDX 2 14
REMARK H PARENT
ROOT
ATOM      1  O   UNL     1     100.750  46.095  -9.148  1.00  0.00    -0.464 OA
ATOM      2  O   UNL     1      98.938  50.508  -8.342  1.00  0.00    -0.423 OA
ATOM      3  O   UNL     1      98.083  52.577  -7.857  1.00  0.00    -0.246 OA
ATOM      4  C   UNL     1     100.366  46.792  -7.033  1.00  0.00     0.021 A 
ATOM      5  C   UNL     1      99.463  48.979  -6.520  1.00  0.00     0.018 A 
ATOM      6  C   UNL     1     100.298  47.128  -8.382  1.00  0.00     0.137 A 
ATOM      7  C   UNL     1      99.419  49.258  -7.886  1.00  0.00     0.142 A 
ATOM      8  C   UNL     1      99.940  47.736  -6.078  1.00  0.00     0.024 A 
ATOM      9  C   UNL     1      99.833  48.349  -8.863  1.00  0.00     0.095 A 
ATOM     10  C   UNL     1     100.892  45.474  -6.990  1.00  0.00     0.050 A 
ATOM     11  C   UNL     1      99.006  49.994  -5.583  1.00  0.00     0.019 A 
ATOM     12  C   UNL     1     101.107  45.099  -8.295  1.00  0.00     0.196 A 
ATOM     13  C   UNL     1      98.556  51.170  -6.027  1.00  0.00     0.094 A 
ATOM     14  C   UNL     1      98.498  51.492  -7.464  1.00  0.00     0.336 A 
ENDROOT
TORSDOF 0
ENDMDL
MODEL 8
REMARK VINA RESULT:    -7.838      2.648      4.206
REMARK INTER + INTRA:          -7.838
REMARK INTER:                  -7.838
REMARK INTRA:                   0.000
REMARK UNBOUND:                 0.000
REMARK SMILES O=c1ccc2cc3ccoc3cc2o1
REMARK SMILES IDX 10 1 14 2 1 3 7 4 5 5 11 6 13 7 6 8 12 9 8 10 4 11 9 12 3 13
REMARK SMILES IDX 2 14
REMARK H PARENT
ROOT
ATOM      1  O   UNL     1      98.395  51.832  -8.147  1.00  0.00    -0.464 OA
ATOM      2  O   UNL     1     100.141  47.333  -8.490  1.00  0.00    -0.423 OA
ATOM      3  O   UNL     1     100.971  45.199  -8.546  1.00  0.00    -0.246 OA
ATOM      4  C   UNL     1      98.881  50.661  -6.277  1.00  0.00     0.021 A 
ATOM      5  C   UNL     1      99.758  48.405  -6.336  1.00  0.00     0.018 A 
ATOM      6  C   UNL     1      98.864  50.645  -7.668  1.00  0.00     0.137 A 
ATOM      7  C   UNL     1      99.718  48.448  -7.730  1.00  0.00     0.142 A 
ATOM      8  C   UNL     1      99.338  49.518  -5.592  1.00  0.00     0.024 A 
ATOM      9  C   UNL     1      99.272  49.563  -8.445  1.00  0.00     0.095 A 
ATOM     10  C   UNL     1      98.391  51.939  -5.900  1.00  0.00     0.050 A 
ATOM     11  C   UNL     1     100.243  47.196  -5.687  1.00  0.00     0.019 A 
ATOM     12  C   UNL     1      98.111  52.608  -7.068  1.00  0.00     0.196 A 
ATOM     13  C   UNL     1     100.638  46.150  -6.416  1.00  0.00     0.094 A 
ATOM     14  C   UNL     1     100.606  46.168  -7.889  1.00  0.00     0.336 A 
ENDROOT
TORSDOF 0
ENDMDL
MODEL 9
REMARK VINA RESULT:    -7.801      8.515     10.195
REMARK INTER + INTRA:          -7.801
REMARK INTER:                  -7.801
REMARK INTRA:                   0.000
REMARK UNBOUND:                 0.000
REMARK SMILES O=c1ccc2cc3ccoc3cc2o1
REMARK SMILES IDX 10 1 14 2 1 3 7 4 5 5 11 6 13 7 6 8 12 9 8 10 4 11 9 12 3 13
REMARK SMILES IDX 2 14
REMARK H PARENT
ROOT
ATOM      1  O   UNL     1      91.731  52.205  -2.099  1.00  0.00    -0.464 OA
ATOM      2  O   UNL     1      94.619  49.816  -5.158  1.00  0.00    -0.423 OA
ATOM      3  O   UNL     1      95.906  48.621  -6.629  1.00  0.00    -0.246 OA
ATOM      4  C   UNL     1      90.932  50.444  -3.269  1.00  0.00     0.021 A 
ATOM      5  C   UNL     1      92.292  49.181  -4.824  1.00  0.00     0.018 A 
ATOM      6  C   UNL     1      92.042  51.244  -3.015  1.00  0.00     0.137 A 
ATOM      7  C   UNL     1      93.369  50.017  -4.529  1.00  0.00     0.142 A 
ATOM      8  C   UNL     1      91.055  49.388  -4.193  1.00  0.00     0.024 A 
ATOM      9  C   UNL     1      93.286  51.074  -3.619  1.00  0.00     0.095 A 
ATOM     10  C   UNL     1      89.891  50.960  -2.453  1.00  0.00     0.050 A 
ATOM     11  C   UNL     1      92.483  48.106  -5.786  1.00  0.00     0.019 A 
ATOM     12  C   UNL     1      90.426  52.023  -1.765  1.00  0.00     0.196 A 
ATOM     13  C   UNL     1      93.668  47.928  -6.374  1.00  0.00     0.094 A 
ATOM     14  C   UNL     1      94.823  48.796  -6.081  1.00  0.00     0.336 A 
ENDROOT
TORSDOF 0
ENDMDL
